/*--------------------------------*- C++ -*----------------------------------*\
| =========                 |                                                 |
| \\      /  F ield         | OpenFOAM: The Open Source CFD Toolbox           |
|  \\    /   O peration     | Version:  2306                                  |
|   \\  /    A nd           | Website:  www.openfoam.com                      |
|    \\/     M anipulation  |                                                 |
\*---------------------------------------------------------------------------*/
FoamFile
{
    version     2.0;
    format      ascii;
    arch        "LSB;label=32;scalar=64";
    class       polyBoundaryMesh;
    location    "constant/polyMesh";
    object      boundary;
}
// * * * * * * * * * * * * * * * * * * * * * * * * * * * * * * * * * * * * * //

9
(
    bottom
    {
        type            symmetryPlane;
        inGroups        1(symmetryPlane);
        nFaces          0;
        startFace       3541;
    }
    inlet1
    {
        type            patch;
        nFaces          26;
        startFace       3541;
    }
    outlet1
    {
        type            patch;
        nFaces          0;
        startFace       3567;
    }
    top
    {
        type            patch;
        nFaces          71;
        startFace       3567;
    }
    wall1
    {
        type            wall;
        inGroups        1(wall);
        nFaces          0;
        startFace       3638;
    }
    bottomEmptyFaces
    {
        type            empty;
        inGroups        1(empty);
        nFaces          1819;
        startFace       3638;
    }
    topEmptyFaces
    {
        type            empty;
        inGroups        1(empty);
        nFaces          1819;
        startFace       5457;
    }
    procBoundary2to0
    {
        type            processor;
        inGroups        1(processor);
        nFaces          72;
        startFace       7276;
        matchTolerance  0.0001;
        transform       unknown;
        myProcNo        2;
        neighbProcNo    0;
    }
    procBoundary2to3
    {
        type            processor;
        inGroups        1(processor);
        nFaces          25;
        startFace       7348;
        matchTolerance  0.0001;
        transform       unknown;
        myProcNo        2;
        neighbProcNo    3;
    }
)

// ************************************************************************* //
