/*--------------------------------*- C++ -*----------------------------------*\
| =========                 |                                                 |
| \\      /  F ield         | OpenFOAM: The Open Source CFD Toolbox           |
|  \\    /   O peration     | Version:  2306                                  |
|   \\  /    A nd           | Website:  www.openfoam.com                      |
|    \\/     M anipulation  |                                                 |
\*---------------------------------------------------------------------------*/
FoamFile
{
    version     2.0;
    format      ascii;
    arch        "LSB;label=32;scalar=64";
    class       polyBoundaryMesh;
    location    "constant/polyMesh";
    object      boundary;
}
// * * * * * * * * * * * * * * * * * * * * * * * * * * * * * * * * * * * * * //

9
(
    bottom
    {
        type            symmetryPlane;
        inGroups        1(symmetryPlane);
        nFaces          30;
        startFace       4617;
    }
    inlet1
    {
        type            patch;
        nFaces          34;
        startFace       4647;
    }
    outlet1
    {
        type            patch;
        nFaces          0;
        startFace       4681;
    }
    top
    {
        type            patch;
        nFaces          0;
        startFace       4681;
    }
    wall1
    {
        type            wall;
        inGroups        1(wall);
        nFaces          48;
        startFace       4681;
    }
    bottomEmptyFaces
    {
        type            empty;
        inGroups        1(empty);
        nFaces          2362;
        startFace       4729;
    }
    topEmptyFaces
    {
        type            empty;
        inGroups        1(empty);
        nFaces          2362;
        startFace       7091;
    }
    procBoundary0to1
    {
        type            processor;
        inGroups        1(processor);
        nFaces          30;
        startFace       9453;
        matchTolerance  0.0001;
        transform       unknown;
        myProcNo        0;
        neighbProcNo    1;
    }
    procBoundary0to2
    {
        type            processor;
        inGroups        1(processor);
        nFaces          72;
        startFace       9483;
        matchTolerance  0.0001;
        transform       unknown;
        myProcNo        0;
        neighbProcNo    2;
    }
)

// ************************************************************************* //
